<?xml version="1.0" encoding="UTF-8"?>

<!-- generated on Tue Apr 30 17:27:02 2019 by Eclipse SUMO netedit Version UNKNOWN
<configuration xmlns:xsi="http://www.w3.org/2001/XMLSchema-instance" xsi:noNamespaceSchemaLocation="http://sumo.dlr.de/xsd/netconvertConfiguration.xsd">

    <input>
        <sumo-net-file value="/headless/flow/flow/core/kernel/scenario/debug/cfg/Kenmore_20190430-1716151556644575.3212426.net.xml"/>
    </input>

    <output>
        <output-file value="/headless/BostonTrafficSim/Kenmore.net.xml"/>
    </output>

    <processing>
        <no-turnarounds value="true"/>
        <offset.disable-normalization value="true"/>
        <lefthand value="false"/>
        <junctions.corner-detail value="5"/>
        <rectangular-lane-cut value="false"/>
        <walkingareas value="false"/>
    </processing>

    <visualisation>
        <registry-viewport value="true"/>
    </visualisation>

</configuration>
-->

<net version="0.27" junctionCornerDetail="5" xmlns:xsi="http://www.w3.org/2001/XMLSchema-instance" xsi:noNamespaceSchemaLocation="http://sumo.dlr.de/xsd/net_file.xsd">

    <location netOffset="-326158.84,-4690128.61" convBoundary="0.00,416.13,1533.20,879.25" origBoundary="-71.113824,42.334636,-71.070927,42.364917" projParameter="+proj=utm +zone=19 +ellps=WGS84 +datum=WGS84 +units=m +no_defs"/>

    <type id="highway.bridleway" priority="1" numLanes="1" speed="2.78" allow="pedestrian" oneway="1" width="2.00"/>
    <type id="highway.bus_guideway" priority="1" numLanes="1" speed="27.78" allow="bus" oneway="1"/>
    <type id="highway.cycleway" priority="1" numLanes="1" speed="8.33" allow="bicycle" oneway="0" width="1.00"/>
    <type id="highway.footway" priority="1" numLanes="1" speed="2.78" allow="pedestrian" oneway="1" width="2.00"/>
    <type id="highway.ford" priority="1" numLanes="1" speed="2.78" allow="army" oneway="0"/>
    <type id="highway.living_street" priority="3" numLanes="1" speed="2.78" disallow="tram rail_urban rail rail_electric ship" oneway="0"/>
    <type id="highway.motorway" priority="13" numLanes="2" speed="44.44" allow="private emergency authority army vip passenger hov taxi bus coach delivery truck trailer motorcycle evehicle custom1 custom2" oneway="1"/>
    <type id="highway.motorway_link" priority="12" numLanes="1" speed="22.22" allow="private emergency authority army vip passenger hov taxi bus coach delivery truck trailer motorcycle evehicle custom1 custom2" oneway="1"/>
    <type id="highway.path" priority="1" numLanes="1" speed="2.78" allow="bicycle pedestrian" oneway="1" width="2.00"/>
    <type id="highway.pedestrian" priority="1" numLanes="1" speed="2.78" allow="pedestrian" oneway="1" width="2.00"/>
    <type id="highway.primary" priority="9" numLanes="2" speed="27.78" disallow="tram rail_urban rail rail_electric ship" oneway="0"/>
    <type id="highway.primary_link" priority="8" numLanes="1" speed="22.22" disallow="tram rail_urban rail rail_electric ship" oneway="0"/>
    <type id="highway.raceway" priority="14" numLanes="2" speed="83.33" allow="vip" oneway="0"/>
    <type id="highway.residential" priority="4" numLanes="1" speed="13.89" disallow="tram rail_urban rail rail_electric ship" oneway="0"/>
    <type id="highway.secondary" priority="7" numLanes="2" speed="27.78" disallow="tram rail_urban rail rail_electric ship" oneway="0"/>
    <type id="highway.secondary_link" priority="6" numLanes="1" speed="22.22" disallow="tram rail_urban rail rail_electric ship" oneway="0"/>
    <type id="highway.service" priority="2" numLanes="1" speed="5.56" allow="delivery bicycle pedestrian" oneway="0"/>
    <type id="highway.stairs" priority="1" numLanes="1" speed="1.39" allow="pedestrian" oneway="1" width="2.00"/>
    <type id="highway.step" priority="1" numLanes="1" speed="1.39" allow="pedestrian" oneway="1" width="2.00"/>
    <type id="highway.steps" priority="1" numLanes="1" speed="1.39" allow="pedestrian" oneway="1" width="2.00"/>
    <type id="highway.tertiary" priority="6" numLanes="1" speed="22.22" disallow="tram rail_urban rail rail_electric ship" oneway="0"/>
    <type id="highway.tertiary_link" priority="5" numLanes="1" speed="22.22" disallow="tram rail_urban rail rail_electric ship" oneway="0"/>
    <type id="highway.track" priority="1" numLanes="1" speed="5.56" disallow="tram rail_urban rail rail_electric ship" oneway="0"/>
    <type id="highway.trunk" priority="11" numLanes="2" speed="27.78" disallow="tram rail_urban rail rail_electric bicycle pedestrian ship" oneway="0"/>
    <type id="highway.trunk_link" priority="10" numLanes="1" speed="22.22" disallow="tram rail_urban rail rail_electric bicycle pedestrian ship" oneway="0"/>
    <type id="highway.unclassified" priority="5" numLanes="1" speed="13.89" disallow="tram rail_urban rail rail_electric ship" oneway="0"/>
    <type id="highway.unsurfaced" priority="1" numLanes="1" speed="8.33" disallow="tram rail_urban rail rail_electric ship" oneway="0"/>
    <type id="railway.light_rail" priority="15" numLanes="1" speed="27.78" allow="rail_urban" oneway="1"/>
    <type id="railway.preserved" priority="15" numLanes="1" speed="27.78" allow="rail" oneway="1"/>
    <type id="railway.rail" priority="15" numLanes="1" speed="83.33" allow="rail rail_electric" oneway="1"/>
    <type id="railway.subway" priority="15" numLanes="1" speed="27.78" allow="rail_urban" oneway="1"/>
    <type id="railway.tram" priority="15" numLanes="1" speed="13.89" allow="tram" oneway="1"/>

    <edge id=":1083450678_0" function="internal">
        <lane id=":1083450678_0_0" index="0" disallow="tram rail_urban rail rail_electric ship" speed="11.18" length="0.30" shape="1173.89,419.16 1173.59,419.16"/>
    </edge>
    <edge id=":1220060592_0" function="internal">
        <lane id=":1220060592_0_0" index="0" disallow="tram rail_urban rail rail_electric ship" speed="27.78" length="6.14" shape="1176.79,528.74 1175.05,528.63 1173.84,528.96 1172.62,529.31 1170.87,529.27"/>
        <lane id=":1220060592_0_1" index="1" disallow="tram rail_urban rail rail_electric ship" speed="27.78" length="6.14" shape="1176.79,528.74 1175.13,528.14 1174.11,527.38 1173.08,526.65 1171.41,526.11"/>
        <lane id=":1220060592_0_2" index="2" disallow="tram rail_urban rail rail_electric ship" speed="27.78" length="6.14" shape="1177.47,525.62 1175.77,525.00 1174.72,524.24 1173.67,523.50 1171.95,522.96"/>
        <lane id=":1220060592_0_3" index="3" disallow="tram rail_urban rail rail_electric ship" speed="27.78" length="6.14" shape="1178.14,522.49 1176.40,521.87 1175.33,521.10 1174.25,520.36 1172.50,519.81"/>
    </edge>
    <edge id=":1220060611_0" function="internal">
        <lane id=":1220060611_0_0" index="0" disallow="tram rail_urban rail rail_electric ship" speed="27.78" length="0.30" shape="1261.64,558.42 1261.32,558.31"/>
        <lane id=":1220060611_0_1" index="1" disallow="tram rail_urban rail rail_electric ship" speed="27.78" length="0.30" shape="1262.67,555.39 1262.38,555.29"/>
        <lane id=":1220060611_0_2" index="2" disallow="tram rail_urban rail rail_electric ship" speed="27.78" length="0.30" shape="1263.71,552.36 1263.44,552.27"/>
        <lane id=":1220060611_0_3" index="3" disallow="tram rail_urban rail rail_electric ship" speed="27.78" length="0.30" shape="1264.74,549.34 1264.50,549.25"/>
    </edge>
    <edge id=":1220083322_0" function="internal">
        <lane id=":1220083322_0_0" index="0" disallow="tram rail_urban rail rail_electric ship" speed="25.00" length="7.76" shape="1036.65,515.97 1038.03,515.46 1039.42,514.44 1040.81,512.90 1042.22,510.85"/>
    </edge>
    <edge id=":1220083322_1" function="internal">
        <lane id=":1220083322_1_0" index="0" disallow="tram rail_urban rail rail_electric ship" speed="27.78" length="7.90" shape="1036.65,515.97 1044.41,514.52"/>
        <lane id=":1220083322_1_1" index="1" disallow="tram rail_urban rail rail_electric ship" speed="27.78" length="7.90" shape="1037.23,519.12 1045.00,517.67"/>
    </edge>
    <edge id=":1220083325_0" function="internal">
        <lane id=":1220083325_0_0" index="0" disallow="tram rail_urban rail rail_electric ship" speed="25.00" length="11.25" shape="1044.73,503.14 1044.12,500.05 1042.96,497.51 1041.24,495.52 1038.97,494.08"/>
    </edge>
    <edge id=":1220083325_1" function="internal">
        <lane id=":1220083325_1_0" index="0" disallow="tram rail_urban rail rail_electric ship" speed="27.78" length="11.41" shape="1049.91,497.85 1046.62,496.83 1044.35,496.18 1042.13,495.43 1038.97,494.08"/>
        <lane id=":1220083325_1_1" index="1" disallow="tram rail_urban rail rail_electric ship" speed="27.78" length="11.41" shape="1050.92,494.82 1047.74,493.83 1045.53,493.21 1043.37,492.48 1040.31,491.17"/>
    </edge>
    <edge id=":2273088924_0" function="internal">
        <lane id=":2273088924_0_0" index="0" disallow="tram rail_urban rail rail_electric ship" speed="27.78" length="13.79" shape="1116.86,520.44 1103.87,516.01"/>
        <lane id=":2273088924_0_1" index="1" disallow="tram rail_urban rail rail_electric ship" speed="27.78" length="13.79" shape="1118.00,517.46 1104.90,512.98"/>
    </edge>
    <edge id=":2273088924_2" function="internal">
        <lane id=":2273088924_2_0" index="0" disallow="tram rail_urban rail rail_electric ship" speed="27.78" length="11.85" shape="1118.00,517.46 1114.48,515.87 1111.81,514.16 1109.98,512.31 1109.00,510.33"/>
    </edge>
    <edge id=":2484568638_0" function="internal">
        <lane id=":2484568638_0_0" index="0" disallow="tram rail_urban rail rail_electric ship" speed="27.78" length="4.67" shape="911.95,443.67 911.07,442.52 910.94,441.64 911.58,441.01 912.97,440.63"/>
    </edge>
    <edge id=":3136191248_0" function="internal">
        <lane id=":3136191248_0_0" index="0" disallow="tram rail_urban rail rail_electric ship" speed="27.78" length="0.30" shape="1132.68,498.58 1132.96,498.58"/>
        <lane id=":3136191248_0_1" index="1" disallow="tram rail_urban rail rail_electric ship" speed="27.78" length="0.30" shape="1132.66,501.78 1132.96,501.78"/>
        <lane id=":3136191248_0_2" index="2" disallow="tram rail_urban rail rail_electric ship" speed="27.78" length="0.30" shape="1132.64,504.98 1132.96,504.98"/>
    </edge>
    <edge id=":3136191261_0" function="internal">
        <lane id=":3136191261_0_0" index="0" disallow="tram rail_urban rail rail_electric ship" speed="27.78" length="0.30" shape="1258.69,539.24 1258.40,539.24"/>
        <lane id=":3136191261_0_1" index="1" disallow="tram rail_urban rail rail_electric ship" speed="27.78" length="0.30" shape="1258.65,536.04 1258.34,536.04"/>
    </edge>
    <edge id=":366656185_0" function="internal">
        <lane id=":366656185_0_0" index="0" disallow="tram rail_urban rail rail_electric ship" speed="27.78" length="0.30" shape="1298.92,498.86 1299.22,498.86"/>
        <lane id=":366656185_0_1" index="1" disallow="tram rail_urban rail rail_electric ship" speed="27.78" length="0.30" shape="1298.89,502.06 1299.19,502.06"/>
        <lane id=":366656185_0_2" index="2" disallow="tram rail_urban rail rail_electric ship" speed="27.78" length="0.30" shape="1298.87,505.26 1299.16,505.26"/>
    </edge>
    <edge id=":4260960996_0" function="internal">
        <lane id=":4260960996_0_0" index="0" disallow="tram rail_urban rail rail_electric ship" speed="27.78" length="73.66" shape="1246.11,552.96 1229.41,546.83 1209.97,539.57 1191.32,532.97 1176.99,528.79"/>
        <lane id=":4260960996_0_1" index="1" disallow="tram rail_urban rail rail_electric ship" speed="27.78" length="73.66" shape="1247.17,549.94 1230.41,543.79 1210.84,536.50 1192.05,529.85 1177.66,525.66"/>
        <lane id=":4260960996_0_2" index="2" disallow="tram rail_urban rail rail_electric ship" speed="27.78" length="73.66" shape="1248.23,546.92 1231.41,540.75 1211.71,533.42 1192.79,526.74 1178.34,522.53"/>
    </edge>
    <edge id=":4260960996_3" function="internal">
        <lane id=":4260960996_3_0" index="0" disallow="tram rail_urban rail rail_electric ship" speed="27.78" length="74.25" shape="1250.49,539.38 1236.96,537.76 1215.83,533.78 1193.82,529.16 1177.66,525.66"/>
        <lane id=":4260960996_3_1" index="1" disallow="tram rail_urban rail rail_electric ship" speed="27.78" length="74.25" shape="1251.38,536.17 1237.81,534.56 1216.61,530.60 1194.53,526.02 1178.34,522.53"/>
    </edge>
    <edge id=":4260967624_0" function="internal">
        <lane id=":4260967624_0_0" index="0" disallow="tram rail_urban rail rail_electric ship" speed="27.78" length="7.92" shape="1470.28,497.33 1472.58,497.07 1474.12,496.52 1475.66,495.97 1477.97,495.71"/>
        <lane id=":4260967624_0_1" index="1" disallow="tram rail_urban rail rail_electric ship" speed="27.78" length="7.92" shape="1470.28,497.33 1472.59,497.57 1474.13,498.12 1475.67,498.67 1477.98,498.91"/>
        <lane id=":4260967624_0_2" index="2" disallow="tram rail_urban rail rail_electric ship" speed="27.78" length="7.92" shape="1470.28,500.53 1472.59,500.77 1474.13,501.32 1475.67,501.87 1477.98,502.11"/>
        <lane id=":4260967624_0_3" index="3" disallow="tram rail_urban rail rail_electric ship" speed="27.78" length="7.92" shape="1470.29,503.73 1472.60,503.97 1474.14,504.52 1475.68,505.07 1477.99,505.31"/>
    </edge>
    <edge id=":4780519376_0" function="internal">
        <lane id=":4780519376_0_0" index="0" disallow="tram rail_urban rail rail_electric ship" speed="27.78" length="0.30" shape="1385.76,499.78 1386.02,499.78"/>
        <lane id=":4780519376_0_1" index="1" disallow="tram rail_urban rail rail_electric ship" speed="27.78" length="0.30" shape="1385.72,502.98 1386.02,502.98"/>
        <lane id=":4780519376_0_2" index="2" disallow="tram rail_urban rail rail_electric ship" speed="27.78" length="0.30" shape="1385.69,506.18 1386.01,506.18"/>
    </edge>
    <edge id=":5663069561_0" function="internal">
        <lane id=":5663069561_0_0" index="0" disallow="tram rail_urban rail rail_electric ship" speed="27.78" length="0.30" shape="1076.60,532.95 1076.30,533.00"/>
        <lane id=":5663069561_0_1" index="1" disallow="tram rail_urban rail rail_electric ship" speed="27.78" length="0.30" shape="1076.01,529.80 1075.72,529.85"/>
    </edge>
    <edge id=":5674166455_0" function="internal">
        <lane id=":5674166455_0_0" index="0" disallow="tram rail_urban rail rail_electric ship" speed="27.78" length="0.10" shape="1462.01,610.60 1462.01,610.60"/>
        <lane id=":5674166455_0_1" index="1" disallow="tram rail_urban rail rail_electric ship" speed="27.78" length="0.10" shape="1465.21,610.60 1465.21,610.60"/>
    </edge>
    <edge id=":5674180974_0" function="internal">
        <lane id=":5674180974_0_0" index="0" disallow="tram rail_urban rail rail_electric ship" speed="27.78" length="0.30" shape="1455.16,539.31 1454.87,539.31"/>
        <lane id=":5674180974_0_1" index="1" disallow="tram rail_urban rail rail_electric ship" speed="27.78" length="0.30" shape="1455.18,536.11 1454.87,536.11"/>
    </edge>
    <edge id=":5674181063_0" function="internal">
        <lane id=":5674181063_0_0" index="0" disallow="tram rail_urban rail rail_electric ship" speed="27.78" length="0.10" shape="1461.96,548.75 1461.96,548.75"/>
        <lane id=":5674181063_0_1" index="1" disallow="tram rail_urban rail rail_electric ship" speed="27.78" length="0.10" shape="1465.16,548.75 1465.16,548.75"/>
    </edge>
    <edge id=":5674181064_0" function="internal">
        <lane id=":5674181064_0_0" index="0" disallow="tram rail_urban rail rail_electric ship" speed="11.18" length="0.30" shape="1462.82,490.79 1462.82,490.49"/>
    </edge>
    <edge id=":5674181675_0" function="internal">
        <lane id=":5674181675_0_0" index="0" disallow="tram rail_urban rail rail_electric ship" speed="27.78" length="0.30" shape="1454.63,497.41 1454.93,497.41"/>
        <lane id=":5674181675_0_1" index="1" disallow="tram rail_urban rail rail_electric ship" speed="27.78" length="0.30" shape="1454.66,500.61 1454.96,500.61"/>
        <lane id=":5674181675_0_2" index="2" disallow="tram rail_urban rail rail_electric ship" speed="27.78" length="0.30" shape="1454.69,503.81 1454.99,503.81"/>
    </edge>
    <edge id=":5674183148_0" function="internal">
        <lane id=":5674183148_0_0" index="0" disallow="tram rail_urban rail rail_electric ship" speed="27.78" length="0.30" shape="1474.84,631.25 1474.55,631.15"/>
        <lane id=":5674183148_0_1" index="1" disallow="tram rail_urban rail rail_electric ship" speed="27.78" length="0.30" shape="1475.86,628.21 1475.58,628.12"/>
        <lane id=":5674183148_0_2" index="2" disallow="tram rail_urban rail rail_electric ship" speed="27.78" length="0.30" shape="1476.88,625.18 1476.60,625.09"/>
        <lane id=":5674183148_0_3" index="3" disallow="tram rail_urban rail rail_electric ship" speed="27.78" length="0.30" shape="1477.91,622.15 1477.62,622.05"/>
    </edge>
    <edge id=":61342087_0" function="internal">
        <lane id=":61342087_0_0" index="0" disallow="tram rail_urban rail rail_electric ship" speed="19.48" length="10.36" shape="1287.37,493.21 1287.84,495.65 1289.20,497.39 1291.46,498.45 1294.61,498.83"/>
    </edge>
    <edge id=":61342087_1" function="internal">
        <lane id=":61342087_1_0" index="0" disallow="tram rail_urban rail rail_electric ship" speed="11.18" length="17.59" shape="1287.37,493.21 1288.99,510.73"/>
    </edge>
    <edge id=":61342087_2" function="internal">
        <lane id=":61342087_2_0" index="0" disallow="tram rail_urban rail rail_electric ship" speed="27.78" length="14.32" shape="1280.27,498.76 1294.61,498.83"/>
        <lane id=":61342087_2_1" index="1" disallow="tram rail_urban rail rail_electric ship" speed="27.78" length="14.32" shape="1280.27,501.96 1294.59,502.03"/>
        <lane id=":61342087_2_2" index="2" disallow="tram rail_urban rail rail_electric ship" speed="27.78" length="14.32" shape="1280.27,505.16 1294.56,505.23"/>
    </edge>
    <edge id=":61342087_5" function="internal">
        <lane id=":61342087_5_0" index="0" disallow="tram rail_urban rail rail_electric ship" speed="19.48" length="8.94" shape="1280.27,505.16 1282.69,505.51 1284.42,506.55 1285.45,508.29 1285.79,510.72"/>
    </edge>
    <edge id=":61342088_0" function="internal">
        <lane id=":61342088_0_0" index="0" disallow="tram rail_urban rail rail_electric ship" speed="19.48" length="10.35" shape="1294.36,538.96 1291.23,539.30 1288.96,540.33 1287.57,542.07 1287.06,544.50"/>
    </edge>
    <edge id=":61342088_1" function="internal">
        <lane id=":61342088_1_0" index="0" disallow="tram rail_urban rail rail_electric ship" speed="27.78" length="14.15" shape="1294.36,538.96 1280.23,539.01"/>
        <lane id=":61342088_1_1" index="1" disallow="tram rail_urban rail rail_electric ship" speed="27.78" length="14.15" shape="1294.37,535.76 1280.19,535.81"/>
    </edge>
    <edge id=":61342088_3" function="internal">
        <lane id=":61342088_3_0" index="0" disallow="tram rail_urban rail rail_electric ship" speed="11.18" length="14.40" shape="1288.89,530.24 1288.61,534.80 1288.02,538.19 1287.40,541.17 1287.06,544.50"/>
    </edge>
    <edge id=":61342088_4" function="internal">
        <lane id=":61342088_4_0" index="0" disallow="tram rail_urban rail rail_electric ship" speed="19.48" length="8.91" shape="1285.69,530.23 1285.34,532.65 1284.31,534.39 1282.59,535.44 1280.19,535.81"/>
    </edge>
    <edge id=":61342386_0" function="internal">
        <lane id=":61342386_0_0" index="0" disallow="tram rail_urban rail rail_electric ship" speed="27.78" length="9.08" shape="1461.96,544.94 1461.60,542.49 1460.54,540.73 1458.78,539.67 1456.32,539.31"/>
    </edge>
    <edge id=":61342386_1" function="internal">
        <lane id=":61342386_1_0" index="0" disallow="tram rail_urban rail rail_electric ship" speed="27.78" length="14.43" shape="1461.96,544.94 1461.87,530.53"/>
        <lane id=":61342386_1_1" index="1" disallow="tram rail_urban rail rail_electric ship" speed="27.78" length="14.43" shape="1465.16,544.94 1465.07,530.49"/>
    </edge>
    <edge id=":61342386_3" function="internal">
        <lane id=":61342386_3_0" index="0" disallow="tram rail_urban rail rail_electric ship" speed="27.78" length="14.43" shape="1470.74,539.38 1456.32,539.31"/>
        <lane id=":61342386_3_1" index="1" disallow="tram rail_urban rail rail_electric ship" speed="27.78" length="14.43" shape="1470.76,536.18 1456.33,536.11"/>
    </edge>
    <edge id=":61342386_5" function="internal">
        <lane id=":61342386_5_0" index="0" disallow="tram rail_urban rail rail_electric ship" speed="27.78" length="9.14" shape="1470.76,536.18 1468.29,535.81 1466.52,534.74 1465.45,532.97 1465.07,530.49"/>
    </edge>
    <edge id=":61342396_0" function="internal">
        <lane id=":61342396_0_0" index="0" disallow="tram rail_urban rail rail_electric ship" speed="19.48" length="17.70" shape="1461.64,509.39 1462.86,491.73"/>
    </edge>
    <edge id=":61342396_1" function="internal">
        <lane id=":61342396_1_0" index="0" allow="private emergency authority army vip passenger hov taxi bus coach delivery truck trailer motorcycle evehicle custom1 custom2" speed="25.00" length="17.67" shape="1464.84,509.35 1464.60,503.57 1464.19,499.09 1463.90,495.33 1463.98,491.71"/>
    </edge>
    <edge id=":61342396_2" function="internal">
        <lane id=":61342396_2_0" index="0" disallow="tram rail_urban rail rail_electric ship" speed="27.78" length="11.52" shape="1464.84,509.35 1465.13,505.49 1466.10,502.74 1467.75,501.08 1470.08,500.53"/>
    </edge>
    <edge id=":61342396_3" function="internal">
        <lane id=":61342396_3_0" index="0" disallow="tram rail_urban rail rail_electric ship" speed="27.78" length="8.79" shape="1464.84,509.35 1465.14,506.89 1466.12,505.14 1467.77,504.08 1470.09,503.73"/>
    </edge>
    <edge id=":61342396_4" function="internal">
        <lane id=":61342396_4_0" index="0" disallow="tram rail_urban rail rail_electric ship" speed="19.48" length="10.22" shape="1455.93,497.40 1459.03,497.02 1461.21,495.95 1462.49,494.19 1462.86,491.73"/>
    </edge>
    <edge id=":61342396_5" function="internal">
        <lane id=":61342396_5_0" index="0" allow="private emergency authority army vip passenger hov taxi bus coach delivery truck trailer motorcycle evehicle custom1 custom2" speed="25.00" length="10.95" shape="1455.93,497.40 1459.25,497.02 1461.70,495.95 1463.27,494.18 1463.98,491.71"/>
    </edge>
    <edge id=":61342396_6" function="internal">
        <lane id=":61342396_6_0" index="0" disallow="tram rail_urban rail rail_electric ship" speed="27.78" length="14.13" shape="1455.93,497.40 1470.08,497.33"/>
        <lane id=":61342396_6_1" index="1" disallow="tram rail_urban rail rail_electric ship" speed="27.78" length="14.13" shape="1455.95,500.60 1470.08,500.53"/>
        <lane id=":61342396_6_2" index="2" disallow="tram rail_urban rail rail_electric ship" speed="27.78" length="14.13" shape="1455.98,503.80 1470.09,503.73"/>
    </edge>
    <edge id=":61349184_0" function="internal">
        <lane id=":61349184_0_0" index="0" disallow="tram rail_urban rail rail_electric ship" speed="27.78" length="16.10" shape="1108.95,510.13 1107.84,506.35 1106.67,502.37 1105.74,498.36 1105.33,494.49"/>
    </edge>
    <edge id=":61349184_1" function="internal">
        <lane id=":61349184_1_0" index="0" disallow="tram rail_urban rail rail_electric ship" speed="27.78" length="2.85" shape="1108.95,510.13 1109.00,508.60 1109.85,507.60"/>
    </edge>
    <edge id=":61349184_10" function="internal">
        <lane id=":61349184_10_0" index="0" speed="27.78" length="5.69" shape="1109.85,507.60 1110.05,507.37 1112.11,506.45 1115.18,505.84"/>
    </edge>
    <edge id=":61349184_2" function="internal">
        <lane id=":61349184_2_0" index="0" disallow="tram rail_urban rail rail_electric ship" speed="27.78" length="9.04" shape="1108.53,494.44 1108.92,496.93 1110.03,498.60 1111.84,499.45 1114.36,499.49"/>
    </edge>
    <edge id=":61349184_3" function="internal">
        <lane id=":61349184_3_0" index="0" disallow="tram rail_urban rail rail_electric ship" speed="27.78" length="4.67" shape="1108.53,494.44 1107.74,495.65 1106.95,496.06 1106.14,495.67 1105.33,494.49"/>
    </edge>
    <edge id=":61349184_4" function="internal">
        <lane id=":61349184_4_0" index="0" disallow="tram rail_urban rail rail_electric ship" speed="27.78" length="17.31" shape="1090.69,497.21 1097.13,498.74 1101.72,498.80 1104.45,497.38 1105.33,494.49"/>
    </edge>
    <edge id=":61349184_5" function="internal">
        <lane id=":61349184_5_0" index="0" disallow="tram rail_urban rail rail_electric ship" speed="27.78" length="25.73" shape="1090.69,497.21 1096.76,499.52 1101.72,501.63 1107.18,502.89 1114.77,502.66"/>
        <lane id=":61349184_5_1" index="1" disallow="tram rail_urban rail rail_electric ship" speed="27.78" length="25.73" shape="1089.81,500.29 1095.99,502.63 1101.25,504.79 1107.13,506.09 1115.18,505.84"/>
    </edge>
    <edge id=":61349184_7" function="internal">
        <lane id=":61349184_7_0" index="0" disallow="tram rail_urban rail rail_electric ship" speed="27.78" length="15.56" shape="1095.07,504.28 1099.60,502.94 1102.82,500.86 1104.73,498.04 1105.33,494.49"/>
    </edge>
    <edge id=":61349184_8" function="internal">
        <lane id=":61349184_8_0" index="0" disallow="tram rail_urban rail rail_electric ship" speed="27.78" length="19.70" shape="1095.07,504.28 1100.87,503.44 1104.89,503.26 1108.92,503.19 1114.77,502.66"/>
        <lane id=":61349184_8_1" index="1" disallow="tram rail_urban rail rail_electric ship" speed="27.78" length="19.70" shape="1095.66,507.42 1101.40,506.59 1105.39,506.42 1109.39,506.36 1115.18,505.84"/>
    </edge>
    <edge id=":61349591_0" function="internal">
        <lane id=":61349591_0_0" index="0" disallow="tram rail_urban rail rail_electric ship" speed="19.48" length="29.90" shape="1471.03,629.96 1461.21,627.11 1452.97,625.49 1446.43,624.83 1441.73,624.85"/>
    </edge>
    <edge id=":61349591_1" function="internal">
        <lane id=":61349591_1_0" index="0" disallow="tram rail_urban rail rail_electric ship" speed="27.78" length="30.38" shape="1471.03,629.96 1442.26,620.17"/>
        <lane id=":61349591_1_1" index="1" disallow="tram rail_urban rail rail_electric ship" speed="27.78" length="30.38" shape="1472.05,626.93 1443.29,617.14"/>
        <lane id=":61349591_1_2" index="2" disallow="tram rail_urban rail rail_electric ship" speed="27.78" length="30.38" shape="1473.08,623.90 1444.33,614.11"/>
        <lane id=":61349591_1_3" index="3" disallow="tram rail_urban rail rail_electric ship" speed="27.78" length="30.38" shape="1474.10,620.87 1445.36,611.08"/>
    </edge>
    <edge id=":61349591_5" function="internal">
        <lane id=":61349591_5_0" index="0" disallow="tram rail_urban rail rail_electric ship" speed="27.78" length="14.49" shape="1474.10,620.87 1470.21,619.11 1467.43,616.83 1465.77,614.02 1465.21,610.70"/>
    </edge>
    <edge id=":61349591_6" function="internal">
        <lane id=":61349591_6_0" index="0" disallow="tram rail_urban rail rail_electric ship" speed="19.48" length="24.99" shape="1461.88,634.15 1460.67,629.55 1456.91,626.46 1450.59,624.89 1441.73,624.85"/>
    </edge>
    <edge id=":61349591_7" function="internal">
        <lane id=":61349591_7_0" index="0" disallow="tram rail_urban rail rail_electric ship" speed="27.78" length="25.19" shape="1461.88,634.15 1460.69,630.56 1457.02,627.03 1450.87,623.57 1442.26,620.17"/>
    </edge>
    <edge id=":61349591_8" function="internal">
        <lane id=":61349591_8_0" index="0" disallow="tram rail_urban rail rail_electric ship" speed="27.78" length="26.80" shape="1461.88,634.15 1460.77,629.11 1457.30,624.59 1451.47,620.60 1443.29,617.14"/>
    </edge>
    <edge id=":61349591_9" function="internal">
        <lane id=":61349591_9_0" index="0" disallow="tram rail_urban rail rail_electric ship" speed="27.78" length="23.46" shape="1461.88,634.15 1462.01,610.70"/>
        <lane id=":61349591_9_1" index="1" disallow="tram rail_urban rail rail_electric ship" speed="27.78" length="23.46" shape="1465.08,634.18 1465.21,610.70"/>
    </edge>
    <edge id=":61351869_0" function="internal">
        <lane id=":61351869_0_0" index="0" disallow="tram rail_urban rail rail_electric ship" speed="27.78" length="11.25" shape="1085.59,453.60 1078.46,444.91"/>
    </edge>
    <edge id=":61351869_1" function="internal">
        <lane id=":61351869_1_0" index="0" disallow="tram rail_urban rail rail_electric ship" speed="27.78" length="2.34" shape="1085.59,453.60 1085.44,452.17 1085.80,451.35"/>
    </edge>
    <edge id=":61351869_6" function="internal">
        <lane id=":61351869_6_0" index="0" speed="27.78" length="2.34" shape="1085.80,451.35 1086.68,451.15 1088.06,451.56"/>
    </edge>
    <edge id=":61351869_2" function="internal">
        <lane id=":61351869_2_0" index="0" disallow="tram rail_urban rail rail_electric ship" speed="19.48" length="9.04" shape="1089.00,443.82 1087.21,445.55 1086.46,447.41 1086.74,449.42 1088.06,451.56"/>
    </edge>
    <edge id=":61351869_3" function="internal">
        <lane id=":61351869_3_0" index="0" disallow="tram rail_urban rail rail_electric ship" speed="19.48" length="11.74" shape="1089.00,443.82 1085.63,445.83 1082.76,446.69 1080.37,446.38 1078.46,444.91"/>
    </edge>
    <edge id=":61351869_4" function="internal">
        <lane id=":61351869_4_0" index="0" disallow="tram rail_urban rail rail_electric ship" speed="27.78" length="11.22" shape="1080.94,442.89 1088.06,451.56"/>
    </edge>
    <edge id=":61351869_5" function="internal">
        <lane id=":61351869_5_0" index="0" disallow="tram rail_urban rail rail_electric ship" speed="27.78" length="2.34" shape="1080.94,442.89 1081.08,444.33 1080.71,445.14"/>
    </edge>
    <edge id=":61351869_7" function="internal">
        <lane id=":61351869_7_0" index="0" speed="27.78" length="2.34" shape="1080.71,445.14 1079.83,445.34 1078.46,444.91"/>
    </edge>
    <edge id=":61351871_0" function="internal">